[General]
network = simnet
cmdenv-runs-to-execute = 
repeat = 20
sim-time-limit = 5s
simnet.controlAndPlant.CartMAC.address = "999999999999"
simnet.controlAndPlant.PIDMAC.address = "888888888888"
**.cli.reqLength = 1KB
**.cli.waitTime = exponential(0.015s)
**.cli.destAddress = "111111111111"
**.cli.startTime = exponential(0.015s)
**.mac.txrate = 10Mbps
**.max_attempt = 7
